*SPEF "IEEE 1481-1998"
*DESIGN "a25_coprocessor"
*DATE "Mon Apr 12 08:26:03 2021"
*VENDOR "AUC CSCE Department"
*PROGRAM "SPEF Extractor"
*VERSION "1.0"
*DESIGN_FLOW "PIN_CAP NONE"
*DIVIDER /
*DELIMITER :
*BUS_DELIMITER []
*T_UNIT 1.00000 NS
*C_UNIT 1.00000 PF
*R_UNIT 1.00000 OHM
*L_UNIT 1.00000 HENRY


*NAME_MAP
*0 i_clk
*1 i_copro_crm[0]
*2 i_copro_crm[1]
*3 i_copro_crm[2]
*4 i_copro_crm[3]
*5 i_copro_crn[0]
*6 i_copro_crn[1]
*7 i_copro_crn[2]
*8 i_copro_crn[3]
*9 i_copro_num[0]
*10 i_copro_num[1]
*11 i_copro_num[2]
*12 i_copro_num[3]
*13 i_copro_opcode1[0]
*14 i_copro_opcode1[1]
*15 i_copro_opcode1[2]
*16 i_copro_opcode2[0]
*17 i_copro_opcode2[1]
*18 i_copro_opcode2[2]
*19 i_copro_operation[0]
*20 i_copro_operation[1]
*21 i_copro_write_data[0]
*22 i_copro_write_data[10]
*23 i_copro_write_data[11]
*24 i_copro_write_data[12]
*25 i_copro_write_data[13]
*26 i_copro_write_data[14]
*27 i_copro_write_data[15]
*28 i_copro_write_data[16]
*29 i_copro_write_data[17]
*30 i_copro_write_data[18]
*31 i_copro_write_data[19]
*32 i_copro_write_data[1]
*33 i_copro_write_data[20]
*34 i_copro_write_data[21]
*35 i_copro_write_data[22]
*36 i_copro_write_data[23]
*37 i_copro_write_data[24]
*38 i_copro_write_data[25]
*39 i_copro_write_data[26]
*40 i_copro_write_data[27]
*41 i_copro_write_data[28]
*42 i_copro_write_data[29]
*43 i_copro_write_data[2]
*44 i_copro_write_data[30]
*45 i_copro_write_data[31]
*46 i_copro_write_data[3]
*47 i_copro_write_data[4]
*48 i_copro_write_data[5]
*49 i_copro_write_data[6]
*50 i_copro_write_data[7]
*51 i_copro_write_data[8]
*52 i_copro_write_data[9]
*53 i_core_stall
*54 i_fault
*55 i_fault_address[0]
*56 i_fault_address[10]
*57 i_fault_address[11]
*58 i_fault_address[12]
*59 i_fault_address[13]
*60 i_fault_address[14]
*61 i_fault_address[15]
*62 i_fault_address[16]
*63 i_fault_address[17]
*64 i_fault_address[18]
*65 i_fault_address[19]
*66 i_fault_address[1]
*67 i_fault_address[20]
*68 i_fault_address[21]
*69 i_fault_address[22]
*70 i_fault_address[23]
*71 i_fault_address[24]
*72 i_fault_address[25]
*73 i_fault_address[26]
*74 i_fault_address[27]
*75 i_fault_address[28]
*76 i_fault_address[29]
*77 i_fault_address[2]
*78 i_fault_address[30]
*79 i_fault_address[31]
*80 i_fault_address[3]
*81 i_fault_address[4]
*82 i_fault_address[5]
*83 i_fault_address[6]
*84 i_fault_address[7]
*85 i_fault_address[8]
*86 i_fault_address[9]
*87 i_fault_status[0]
*88 i_fault_status[1]
*89 i_fault_status[2]
*90 i_fault_status[3]
*91 i_fault_status[4]
*92 i_fault_status[5]
*93 i_fault_status[6]
*94 i_fault_status[7]
*95 o_cache_enable
*96 o_cache_flush
*97 o_cacheable_area[0]
*98 o_cacheable_area[10]
*99 o_cacheable_area[11]
*100 o_cacheable_area[12]
*101 o_cacheable_area[13]
*102 o_cacheable_area[14]
*103 o_cacheable_area[15]
*104 o_cacheable_area[16]
*105 o_cacheable_area[17]
*106 o_cacheable_area[18]
*107 o_cacheable_area[19]
*108 o_cacheable_area[1]
*109 o_cacheable_area[20]
*110 o_cacheable_area[21]
*111 o_cacheable_area[22]
*112 o_cacheable_area[23]
*113 o_cacheable_area[24]
*114 o_cacheable_area[25]
*115 o_cacheable_area[26]
*116 o_cacheable_area[27]
*117 o_cacheable_area[28]
*118 o_cacheable_area[29]
*119 o_cacheable_area[2]
*120 o_cacheable_area[30]
*121 o_cacheable_area[31]
*122 o_cacheable_area[3]
*123 o_cacheable_area[4]
*124 o_cacheable_area[5]
*125 o_cacheable_area[6]
*126 o_cacheable_area[7]
*127 o_cacheable_area[8]
*128 o_cacheable_area[9]
*129 o_copro_read_data[0]
*130 o_copro_read_data[10]
*131 o_copro_read_data[11]
*132 o_copro_read_data[12]
*133 o_copro_read_data[13]
*134 o_copro_read_data[14]
*135 o_copro_read_data[15]
*136 o_copro_read_data[16]
*137 o_copro_read_data[17]
*138 o_copro_read_data[18]
*139 o_copro_read_data[19]
*140 o_copro_read_data[1]
*141 o_copro_read_data[20]
*142 o_copro_read_data[21]
*143 o_copro_read_data[22]
*144 o_copro_read_data[23]
*145 o_copro_read_data[24]
*146 o_copro_read_data[25]
*147 o_copro_read_data[26]
*148 o_copro_read_data[27]
*149 o_copro_read_data[28]
*150 o_copro_read_data[29]
*151 o_copro_read_data[2]
*152 o_copro_read_data[30]
*153 o_copro_read_data[31]
*154 o_copro_read_data[3]
*155 o_copro_read_data[4]
*156 o_copro_read_data[5]
*157 o_copro_read_data[6]
*158 o_copro_read_data[7]
*159 o_copro_read_data[8]
*160 o_copro_read_data[9]
*161 _0000_
*162 _0001_
*163 _0002_
*164 _0003_
*165 _0004_
*166 _0005_
*167 _0006_
*168 _0007_
*169 _0008_
*170 _0009_
*171 _0010_
*172 _0011_
*173 _0012_
*174 _0013_
*175 _0014_
*176 _0015_
*177 _0016_
*178 _0017_
*179 _0018_
*180 _0019_
*181 _0020_
*182 _0021_
*183 _0022_
*184 _0023_
*185 _0024_
*186 _0025_
*187 _0026_
*188 _0027_
*189 _0028_
*190 _0029_
*191 _0030_
*192 _0031_
*193 _0032_
*194 _0033_
*195 _0034_
*196 _0035_
*197 _0036_
*198 _0037_
*199 _0038_
*200 _0039_
*201 _0040_
*202 _0041_
*203 _0042_
*204 _0043_
*205 _0044_
*206 _0045_
*207 _0046_
*208 _0047_
*209 _0048_
*210 _0049_
*211 _0050_
*212 _0051_
*213 _0052_
*214 _0053_
*215 _0054_
*216 _0055_
*217 _0056_
*218 _0057_
*219 _0058_
*220 _0059_
*221 _0060_
*222 _0061_
*223 _0062_
*224 _0063_
*225 _0064_
*226 _0065_
*227 _0066_
*228 _0067_
*229 _0068_
*230 _0069_
*231 _0070_
*232 _0071_
*233 _0072_
*234 _0073_
*235 _0074_
*236 _0075_
*237 _0076_
*238 _0077_
*239 _0078_
*240 _0079_
*241 _0080_
*242 _0081_
*243 _0082_
*244 _0083_
*245 _0084_
*246 _0085_
*247 _0086_
*248 _0087_
*249 _0088_
*250 _0089_
*251 _0090_
*252 _0091_
*253 _0092_
*254 _0093_
*255 _0094_
*256 _0095_
*257 _0096_
*258 _0097_
*259 _0098_
*260 _0099_
*261 _0100_
*262 _0101_
*263 _0102_
*264 _0103_
*265 _0104_
*266 _0105_
*267 _0106_
*268 _0107_
*269 _0108_
*270 _0109_
*271 _0110_
*272 _0111_
*273 _0112_
*274 _0113_
*275 _0114_
*276 _0115_
*277 _0116_
*278 _0117_
*279 _0118_
*280 _0119_
*281 _0120_
*282 _0121_
*283 _0122_
*284 _0123_
*285 _0124_
*286 _0125_
*287 _0126_
*288 _0127_
*289 _0128_
*290 _0129_
*291 _0130_
*292 _0131_
*293 _0132_
*294 _0133_
*295 _0134_
*296 _0135_
*297 _0136_
*298 _0137_
*299 _0138_
*300 _0139_
*301 _0140_
*302 _0141_
*303 _0142_
*304 _0143_
*305 _0144_
*306 _0145_
*307 _0146_
*308 _0147_
*309 _0148_
*310 _0149_
*311 _0150_
*312 _0151_
*313 _0152_
*314 _0153_
*315 _0154_
*316 _0155_
*317 _0156_
*318 _0157_
*319 _0158_
*320 _0159_
*321 _0160_
*322 _0161_
*323 _0162_
*324 _0163_
*325 _0164_
*326 _0165_
*327 _0166_
*328 _0167_
*329 _0168_
*330 _0169_
*331 _0170_
*332 _0171_
*333 _0172_
*334 _0173_
*335 _0174_
*336 _0175_
*337 _0176_
*338 _0177_
*339 _0178_
*340 _0179_
*341 _0180_
*342 _0181_
*343 _0182_
*344 _0183_
*345 _0184_
*346 _0185_
*347 _0186_
*348 _0187_
*349 _0188_
*350 _0189_
*351 _0190_
*352 _0191_
*353 _0192_
*354 _0193_
*355 _0194_
*356 _0195_
*357 _0196_
*358 _0197_
*359 _0198_
*360 _0199_
*361 _0200_
*362 _0201_
*363 _0202_
*364 _0203_
*365 _0204_
*366 _0205_
*367 _0206_
*368 _0207_
*369 _0208_
*370 _0209_
*371 _0210_
*372 _0211_
*373 _0212_
*374 _0213_
*375 _0214_
*376 _0215_
*377 _0216_
*378 _0217_
*379 _0218_
*380 _0219_
*381 _0220_
*382 _0221_
*383 _0222_
*384 _0223_
*385 _0224_
*386 _0225_
*387 _0226_
*388 _0227_
*389 _0228_
*390 _0229_
*391 _0230_
*392 _0231_
*393 _0232_
*394 _0233_
*395 _0234_
*396 _0235_
*397 _0236_
*398 _0237_
*399 _0238_
*400 _0239_
*401 _0240_
*402 _0241_
*403 _0242_
*404 _0243_
*405 _0244_
*406 _0245_
*407 _0246_
*408 _0247_
*409 _0248_
*410 _0249_
*411 _0250_
*412 _0251_
*413 _0252_
*414 _0253_
*415 _0254_
*416 _0255_
*417 _0256_
*418 _0257_
*419 _0258_
*420 _0259_
*421 _0260_
*422 _0261_
*423 _0262_
*424 _0263_
*425 _0264_
*426 _0265_
*427 _0266_
*428 _0267_
*429 _0268_
*430 _0269_
*431 _0270_
*432 _0271_
*433 _0272_
*434 _0273_
*435 _0274_
*436 _0275_
*437 _0276_
*438 _0277_
*439 _0278_
*440 _0279_
*441 _0280_
*442 _0281_
*443 _0282_
*444 _0283_
*445 _0284_
*446 _0285_
*447 _0286_
*448 _0287_
*449 _0288_
*450 _0289_
*451 _0290_
*452 _0291_
*453 _0292_
*454 _0293_
*455 _0294_
*456 _0295_
*457 _0296_
*458 _0297_
*459 _0298_
*460 _0299_
*461 _0300_
*462 _0301_
*463 _0302_
*464 _0303_
*465 _0304_
*466 _0305_
*467 _0306_
*468 _0307_
*469 _0308_
*470 _0309_
*471 _0310_
*472 _0311_
*473 _0312_
*474 _0313_
*475 _0314_
*476 _0315_
*477 _0316_
*478 _0317_
*479 _0318_
*480 _0319_
*481 _0320_
*482 _0321_
*483 _0322_
*484 _0323_
*485 _0324_
*486 _0325_
*487 _0326_
*488 _0327_
*489 _0328_
*490 _0329_
*491 _0330_
*492 _0331_
*493 _0332_
*494 _0333_
*495 _0334_
*496 _0335_
*497 _0336_
*498 _0337_
*499 _0338_
*500 _0339_
*501 _0340_
*502 _0341_
*503 _0342_
*504 _0343_
*505 _0344_
*506 _0345_
*507 _0346_
*508 _0347_
*509 _0348_
*510 _0349_
*511 _0350_
*512 _0351_
*513 _0352_
*514 _0353_
*515 _0354_
*516 _0355_
*517 _0356_
*518 _0357_
*519 _0358_
*520 _0359_
*521 _0360_
*522 _0361_
*523 _0362_
*524 _0363_
*525 _0364_
*526 _0365_
*527 _0366_
*528 _0367_
*529 _0368_
*530 _0369_
*531 _0370_
*532 _0371_
*533 _0372_
*534 _0373_
*535 _0374_
*536 _0375_
*537 _0376_
*538 _0377_
*539 _0378_
*540 _0379_
*541 _0380_
*542 _0381_
*543 _0382_
*544 _0383_
*545 _0384_
*546 _0385_
*547 _0386_
*548 _0387_
*549 _0388_
*550 _0389_
*551 _0390_
*552 _0391_
*553 _0392_
*554 _0393_
*555 _0394_
*556 _0395_
*557 _0396_
*558 _0397_
*559 _0398_
*560 _0399_
*561 _0400_
*562 _0401_
*563 _0402_
*564 _0403_
*565 _0404_
*566 _0405_
*567 _0406_
*568 _0407_
*569 _0408_
*570 _0409_
*571 _0410_
*572 _0411_
*573 _0412_
*574 _0413_
*575 _0414_
*576 _0415_
*577 _0416_
*578 _0417_
*579 _0418_
*580 _0419_
*581 _0420_
*582 _0421_
*583 _0422_
*584 _0423_
*585 _0424_
*586 _0425_
*587 _0426_
*588 _0427_
*589 _0428_
*590 _0429_
*591 _0430_
*592 _0431_
*593 _0432_
*594 _0433_
*595 _0434_
*596 _0435_
*597 _0436_
*598 _0437_
*599 _0438_
*600 _0439_
*601 _0440_
*602 _0441_
*603 _0442_
*604 _0443_
*605 _0444_
*606 _0445_
*607 _0446_
*608 _0447_
*609 _0448_
*610 _0449_
*611 _0450_
*612 _0451_
*613 _0452_
*614 _0453_
*615 _0454_
*616 _0455_
*617 _0456_
*618 _0457_
*619 _0458_
*620 _0459_
*621 _0460_
*622 _0461_
*623 _0462_
*624 _0463_
*625 _0464_
*626 _0465_
*627 _0466_
*628 _0467_
*629 _0468_
*630 _0469_
*631 _0470_
*632 _0471_
*633 _0472_
*634 _0473_
*635 _0474_
*636 _0475_
*637 _0476_
*638 _0477_
*639 _0478_
*640 _0479_
*641 _0480_
*642 _0481_
*643 _0482_
*644 _0483_
*645 _0484_
*646 _0485_
*647 _0486_
*648 _0487_
*649 _0488_
*650 _0489_
*651 _0490_
*652 _0491_
*653 _0492_
*654 _0493_
*655 _0494_
*656 _0495_
*657 _0496_
*658 _0497_
*659 _0498_
*660 _0499_
*661 _0500_
*662 _0501_
*663 _0502_
*664 _0503_
*665 _0504_
*666 _0505_
*667 _0506_
*668 cache_control\[0\]
*669 cache_control\[1\]
*670 cache_control\[2\]
*671 cacheable_area\[0\]
*672 cacheable_area\[10\]
*673 cacheable_area\[11\]
*674 cacheable_area\[12\]
*675 cacheable_area\[13\]
*676 cacheable_area\[14\]
*677 cacheable_area\[15\]
*678 cacheable_area\[16\]
*679 cacheable_area\[17\]
*680 cacheable_area\[18\]
*681 cacheable_area\[19\]
*682 cacheable_area\[1\]
*683 cacheable_area\[20\]
*684 cacheable_area\[21\]
*685 cacheable_area\[22\]
*686 cacheable_area\[23\]
*687 cacheable_area\[24\]
*688 cacheable_area\[25\]
*689 cacheable_area\[26\]
*690 cacheable_area\[27\]
*691 cacheable_area\[28\]
*692 cacheable_area\[29\]
*693 cacheable_area\[2\]
*694 cacheable_area\[30\]
*695 cacheable_area\[31\]
*696 cacheable_area\[3\]
*697 cacheable_area\[4\]
*698 cacheable_area\[5\]
*699 cacheable_area\[6\]
*700 cacheable_area\[7\]
*701 cacheable_area\[8\]
*702 cacheable_area\[9\]
*703 disruptive_area\[0\]
*704 disruptive_area\[10\]
*705 disruptive_area\[11\]
*706 disruptive_area\[12\]
*707 disruptive_area\[13\]
*708 disruptive_area\[14\]
*709 disruptive_area\[15\]
*710 disruptive_area\[16\]
*711 disruptive_area\[17\]
*712 disruptive_area\[18\]
*713 disruptive_area\[19\]
*714 disruptive_area\[1\]
*715 disruptive_area\[20\]
*716 disruptive_area\[21\]
*717 disruptive_area\[22\]
*718 disruptive_area\[23\]
*719 disruptive_area\[24\]
*720 disruptive_area\[25\]
*721 disruptive_area\[26\]
*722 disruptive_area\[27\]
*723 disruptive_area\[28\]
*724 disruptive_area\[29\]
*725 disruptive_area\[2\]
*726 disruptive_area\[30\]
*727 disruptive_area\[31\]
*728 disruptive_area\[3\]
*729 disruptive_area\[4\]
*730 disruptive_area\[5\]
*731 disruptive_area\[6\]
*732 disruptive_area\[7\]
*733 disruptive_area\[8\]
*734 disruptive_area\[9\]
*735 fault_address\[0\]
*736 fault_address\[10\]
*737 fault_address\[11\]
*738 fault_address\[12\]
*739 fault_address\[13\]
*740 fault_address\[14\]
*741 fault_address\[15\]
*742 fault_address\[16\]
*743 fault_address\[17\]
*744 fault_address\[18\]
*745 fault_address\[19\]
*746 fault_address\[1\]
*747 fault_address\[20\]
*748 fault_address\[21\]
*749 fault_address\[22\]
*750 fault_address\[23\]
*751 fault_address\[24\]
*752 fault_address\[25\]
*753 fault_address\[26\]
*754 fault_address\[27\]
*755 fault_address\[28\]
*756 fault_address\[29\]
*757 fault_address\[2\]
*758 fault_address\[30\]
*759 fault_address\[31\]
*760 fault_address\[3\]
*761 fault_address\[4\]
*762 fault_address\[5\]
*763 fault_address\[6\]
*764 fault_address\[7\]
*765 fault_address\[8\]
*766 fault_address\[9\]
*767 fault_status\[0\]
*768 fault_status\[1\]
*769 fault_status\[2\]
*770 fault_status\[3\]
*771 fault_status\[4\]
*772 fault_status\[5\]
*773 fault_status\[6\]
*774 fault_status\[7\]
*775 updateable_area\[0\]
*776 updateable_area\[10\]
*777 updateable_area\[11\]
*778 updateable_area\[12\]
*779 updateable_area\[13\]
*780 updateable_area\[14\]
*781 updateable_area\[15\]
*782 updateable_area\[16\]
*783 updateable_area\[17\]
*784 updateable_area\[18\]
*785 updateable_area\[19\]
*786 updateable_area\[1\]
*787 updateable_area\[20\]
*788 updateable_area\[21\]
*789 updateable_area\[22\]
*790 updateable_area\[23\]
*791 updateable_area\[24\]
*792 updateable_area\[25\]
*793 updateable_area\[26\]
*794 updateable_area\[27\]
*795 updateable_area\[28\]
*796 updateable_area\[29\]
*797 updateable_area\[2\]
*798 updateable_area\[30\]
*799 updateable_area\[31\]
*800 updateable_area\[3\]
*801 updateable_area\[4\]
*802 updateable_area\[5\]
*803 updateable_area\[6\]
*804 updateable_area\[7\]
*805 updateable_area\[8\]
*806 updateable_area\[9\]
*807 net1
*808 net2
*809 net3
*810 net4
*811 net5
*812 net6
*813 net7
*814 net8
*815 net9
*816 net10
*817 net11
*818 net12
*819 net13
*820 net14
*821 net15
*822 net16
*823 net17
*824 net18
*825 net19
*826 net20
*827 net21
*828 net22
*829 net23
*830 net24
*831 net25
*832 net26
*833 net27
*834 net28
*835 net29
*836 net30
*837 net31
*838 net32
*839 net33
*840 net34
*841 net35
*842 net36
*843 net37
*844 net38
*845 net39
*846 net40
*847 net41
*848 net42
*849 net43
*850 net44
*851 net45
*852 net46
*853 net47
*854 net48
*855 net49
*856 net50
*857 net51
*858 net52
*859 net53
*860 net54
*861 net55
*862 net56
*863 net57
*864 net58
*865 net59
*866 net60
*867 net61
*868 net62
*869 net63
*870 net64
*871 net65
*872 net66
*873 net67
*874 net68
*875 net69
*876 net70
*877 net71
*878 net72
*879 net73
*880 net74
*881 net75
*882 net76
*883 net77
*884 net78
*885 net79
*886 net80
*887 net81
*888 net82
*889 net83
*890 net84
*891 net85
*892 net86
*893 net87
*894 net88
*895 net89
*896 net90
*897 net91
*898 net92
*899 net93
*900 net94
*901 net95
*902 net96
*903 net97
*904 net98
*905 net99
*906 net100
*907 net101
*908 net102
*909 net103
*910 net104
*911 net105
*912 net106
*913 net107
*914 net108
*915 net109
*916 net110
*917 net111
*918 net112
*919 net113
*920 net114
*921 net115
*922 net116
*923 net117
*924 net118
*925 net119
*926 net120
*927 net121
*928 net122
*929 net123
*930 net124
*931 net125
*932 net126
*933 net127
*934 net128
*935 net129
*936 net130
*937 net131
*938 net132
*939 net133
*940 net134
*941 net135
*942 net136
*943 net137
*944 net138
*945 net139
*946 net140
*947 net141
*948 net142
*949 net143
*950 net144
*951 net145
*952 net146
*953 net147
*954 net148
*955 net149
*956 net150
*957 net151
*958 net152
*959 net153
*960 net154
*961 net155
*962 net156
*963 net157
*964 net158
*965 net159
*966 net160
*967 clknet_0_i_clk
*968 clknet_3_0_0_i_clk
*969 clknet_3_1_0_i_clk
*970 clknet_3_2_0_i_clk
*971 clknet_3_3_0_i_clk
*972 clknet_3_4_0_i_clk
*973 clknet_3_5_0_i_clk
*974 clknet_3_6_0_i_clk
*975 clknet_3_7_0_i_clk
*976 clknet_4_0_0_i_clk
*977 clknet_4_1_0_i_clk
*978 clknet_4_2_0_i_clk
*979 clknet_4_3_0_i_clk
*980 clknet_4_4_0_i_clk
*981 clknet_4_5_0_i_clk
*982 clknet_4_6_0_i_clk
*983 clknet_4_7_0_i_clk
*984 clknet_4_8_0_i_clk
*985 clknet_4_9_0_i_clk
*986 clknet_4_10_0_i_clk
*987 clknet_4_11_0_i_clk
*988 clknet_4_12_0_i_clk
*989 clknet_4_13_0_i_clk
*990 clknet_4_14_0_i_clk
*991 clknet_4_15_0_i_clk

*D_NET *0 0.008951832400200001
*CONN
*P i_clk I
*I clkbuf_0_i_clk:A I
*CAP
0 *0:1 0.00079218374208
1 *0:4 0.00015622667414000004
2 *0:6 0.00164592881292
3 *0:8 0.0008514516085200002
4 *0:9 0.0015815783379000002
5 clkbuf_0_i_clk:A 0.00067404883232
6 *0:12 6.898398368e-05
7 *0:13 0.0005960852944
8 *0:15 0.00258534511424
9 *0:3 0
10 *0:11 0
*RES
0 *0:1 *0:2 0.30357142857142855
1 *0:1 *0:3 7.803571428571428
2 *0:4 *0:5 1.669642857142857
3 *0:6 *0:5 0.4107142857142857
4 *0:6 *0:7 18.21428571428571
5 *0:8 *0:7 0.4107142857142857
6 *0:9 *0:10 2.8466333333333336
7 *0:8 *0:11 9.107142857142856
8 clkbuf_0_i_clk:A *0:12 6.982142857142857
9 *0:12 *0:13 0.6071428571428571
10 *0:13 *0:14 6.160714285714286
11 *0:15 *0:14 0.30357142857142855
12 *0:15 *0:2 26.696428571428566
13 *0:3 *0:4 0
14 *0:11 *0:9 0
15 clkbuf_0_i_clk:A clkbuf_0_i_clk:A 0
*END

*D_NET *1 0.00038345459844
*CONN
*P i_copro_crm[0] I
*I input1:A I
*CAP
11 *1:1 0.0003596407917
12 *1:3 2.3813806740000006e-05
13 input1:A 0
*RES
16 *1:1 *1:2 0.6125666666666667
17 *1:3 *1:4 0.15178571428571427
18 *1:3 *1:2 0
19 input1:A input1:A 0
20 input1:A *1:4 0
*END

*D_NET *2 0.00046290231888
*CONN
*P i_copro_crm[1] I
*I input2:A I
*CAP
14 *2:1 0.0003596407917
15 *2:3 0.00010326152718000001
16 *2:4 0
17 input2:A 0
*RES
21 *2:1 *2:2 0.6125666666666667
22 *2:3 *2:4 1.0624999999999998
23 *2:4 *2:2 0
24 input2:A input2:A 0
25 input2:A *2:3 0
*END

*D_NET *3 0.00211101903134
*CONN
*P i_copro_crm[2] I
*I input3:A I
*CAP
18 *3:1 0.0012684947603
19 *3:3 0.0005486292278399999
20 *3:4 4.017137184e-05
21 *3:5 0.00025372367136
22 input3:A 0
*RES
26 *3:1 *3:2 14.419642857142854
27 *3:3 *3:4 5.660714285714285
28 *3:4 *3:5 0.30357142857142855
29 *3:5 input3:A 2.5535714285714284
30 *3:3 *3:2 0
31 input3:A input3:A 0
*END

*D_NET *4 0.00116256446638
*CONN
*P i_copro_crm[3] I
*I input4:A I
*CAP
23 *4:1 0.00116256446638
24 input4:A 0
*RES
32 *4:1 *4:2 13.20535714285714
33 input4:A input4:A 0
34 input4:A *4:1 0
*END

*D_NET *5 0.0015308791194600002
*CONN
*P i_copro_crn[0] I
*I input5:A I
*CAP
25 *5:1 0.0005960852944
26 *5:3 0.00014298538739999998
27 *5:5 0.0007918084376600001
28 *5:2 0
29 input5:A 0
*RES
35 *5:1 *5:2 6.160714285714286
36 *5:3 *5:4 1.5178571428571426
37 *5:5 *5:6 8.95535714285714
38 *5:1 *5:5 0
39 *5:2 *5:4 0
40 input5:A input5:A 0
41 input5:A *5:3 0
*END

*D_NET *6 0.00102307443342
*CONN
*P i_copro_crn[1] I
*I input6:A I
*CAP
30 input6:A 0.00028423114272
31 *6:2 0.0007388432907000001
32 *6:1 0
*RES
42 input6:A *6:1 2.875
43 *6:2 *6:3 8.348214285714285
44 input6:A input6:A 0
45 *6:1 *6:2 0
*END

*D_NET *7 0.0007752004416600002
*CONN
*P i_copro_crn[2] I
*I input7:A I
*CAP
33 *7:1 0.0006858781437400002
34 input7:A 8.932229792e-05
35 *7:3 0
*RES
46 *7:1 *7:2 7.741071428571428
47 input7:A *7:3 0.8214285714285714
48 *7:3 *7:2 0
49 input7:A input7:A 0
*END

*D_NET *8 0.0006599890198799999
*CONN
*P i_copro_crn[3] I
*I input8:A I
*CAP
36 *8:1 0.00010326152718000001
37 *8:3 0.0005567274927
38 input8:A 0
39 *8:2 0
*RES
50 *8:1 *8:2 1.0624999999999998
51 *8:3 *8:4 0.9729000000000001
52 input8:A input8:A 0
53 input8:A *8:1 0
54 *8:2 *8:4 0
*END

*D_NET *9 0.00113048890986
*CONN
*P i_copro_num[0] I
*I input9:A I
*CAP
40 *9:1 0.0002062676048
41 *9:2 0.0009242213050600002
42 input9:A 0
*RES
55 *9:1 input9:A 2.0535714285714284
56 *9:2 *9:3 10.473214285714285
57 input9:A input9:A 0
58 *9:1 *9:2 0
*END

*D_NET *10 0.0009617799347199999
*CONN
*P i_copro_num[1] I
*I input10:A I
*CAP
43 *10:1 5.029638022e-05
44 *10:3 0.0009114835544999999
45 input10:A 0
46 *10:2 0
*RES
59 *10:1 *10:2 0.45535714285714285
60 *10:3 *10:4 1.6215
61 input10:A input10:A 0
62 input10:A *10:1 0
63 *10:2 *10:3 0
*END

*D_NET *11 0.00136883207118
*CONN
*P i_copro_num[2] I
*I input11:A I
*CAP
47 *11:1 0.0002062676048
48 *11:2 0.00116256446638
49 input11:A 0
*RES
64 *11:1 input11:A 2.0535714285714284
65 *11:2 *11:3 13.20535714285714
66 input11:A input11:A 0
67 *11:1 *11:2 0
*END

*D_NET *12 0.0012768851552600001
*CONN
*P i_copro_num[3] I
*I input12:A I
*CAP
50 *12:1 0.00016728583584
51 *12:2 0.0011095993194200002
52 input12:A 0
*RES
68 *12:1 input12:A 1.6428571428571428
69 *12:2 *12:3 12.598214285714285
70 *12:1 *12:3 0
71 input12:A input12:A 0
*END

*D_NET *13 0.0019741536163799998
*CONN
*P i_copro_opcode1[0] I
*I input13:A I
*CAP
53 *13:1 0.0005582931283199999
54 *13:3 0.0005181217564799999
55 *13:4 0.0008977387315800001
56 input13:A 0
*RES
72 *13:1 input13:A 5.339285714285714
73 *13:1 *13:2 0.30357142857142855
74 *13:3 *13:2 5.339285714285714
75 *13:4 *13:5 10.169642857142856
76 input13:A input13:A 0
77 *13:3 *13:4 0
*END

*D_NET *14 0.00040993717191999997
*CONN
*P i_copro_opcode1[1] I
*I input14:A I
*CAP
57 *14:1 0.0003596407917
58 *14:3 5.029638022e-05
59 input14:A 0
*RES
78 *14:1 *14:2 0.6125666666666667
79 *14:3 *14:4 0.45535714285714285
80 *14:3 *14:2 0
81 input14:A input14:A 0
82 input14:A *14:4 0
*END

*D_NET *15 0.00140229226686
*CONN
*P i_copro_opcode1[2] I
*I input15:A I
*CAP
60 *15:1 0.0002753982548
61 *15:3 0.0010765534831000002
62 *15:4 5.034052896000001e-05
63 input15:A 0
*RES
83 *15:1 *15:2 3.035714285714285
84 *15:3 *15:2 0.4107142857142857
85 *15:4 input15:A 0.4107142857142857
86 *15:3 *15:5 11.687499999999998
87 *15:4 *15:5 0
88 input15:A input15:A 0
*END

*D_NET *16 0.0017238259597399997
*CONN
*P i_copro_opcode2[0] I
*I input16:A I
*CAP
64 input16:A 4.017137184e-05
65 *16:2 0.0003621946806399999
66 *16:3 0.0013214599072599999
*RES
89 input16:A *16:1 0.30357142857142855
90 *16:2 *16:1 3.6964285714285707
91 *16:3 *16:4 15.026785714285712
92 input16:A input16:A 0
93 *16:2 *16:3 0
*END

*D_NET *17 0.0009242213050600002
*CONN
*P i_copro_opcode2[1] I
*I input17:A I
*CAP
67 *17:1 0.0009242213050600002
68 input17:A 0
*RES
94 *17:1 *17:2 10.473214285714285
95 input17:A input17:A 0
96 input17:A *17:1 0
*END

*D_NET *18 0.0008712561581000002
*CONN
*P i_copro_opcode2[2] I
*I input18:A I
*CAP
69 *18:1 0.0008712561581000002
70 input18:A 0
*RES
97 *18:1 *18:2 9.866071428571429
98 input18:A input18:A 0
99 input18:A *18:2 0
*END

*D_NET *19 0.00058054129944
*CONN
*P i_copro_operation[0] I
*I input19:A I
*CAP
71 *19:1 0.0005567274927
72 *19:3 2.3813806740000006e-05
73 input19:A 0
*RES
100 *19:1 *19:2 0.9729000000000001
101 *19:3 *19:4 0.15178571428571427
102 *19:3 *19:2 0
103 input19:A input19:A 0
104 input19:A *19:4 0
*END

*D_NET *20 0.00040993717191999997
*CONN
*P i_copro_operation[1] I
*I input20:A I
*CAP
74 *20:1 0.0003596407917
75 *20:3 5.029638022e-05
76 input20:A 0
*RES
105 *20:1 *20:2 0.6125666666666667
106 *20:3 *20:4 0.45535714285714285
107 *20:3 *20:2 0
108 input20:A input20:A 0
109 input20:A *20:4 0
*END

*D_NET *21 0.00104106706858
*CONN
*P i_copro_write_data[0] I
*I input21:A I
*CAP
77 *21:1 0.00024524937376
78 *21:2 0.00015622667414000004
79 *21:4 0.00063959102068
80 input21:A 0
*RES
110 *21:1 input21:A 2.464285714285714
111 *21:2 *21:3 1.669642857142857
112 *21:4 *21:3 0.4107142857142857
113 *21:4 *21:5 6.678571428571428
114 input21:A input21:A 0
115 *21:1 *21:2 0
*END

*D_NET *22 0.0018182265405400002
*CONN
*P i_copro_write_data[10] I
*I input22:A I
*CAP
81 *22:1 0.0008977387315800001
82 *22:3 0.0007715032547200002
83 *22:5 0.00014898455423999999
84 input22:A 0
*RES
116 *22:1 *22:2 10.169642857142856
117 *22:3 *22:4 8.008928571428571
118 *22:5 *22:4 0.30357142857142855
119 *22:5 input22:A 1.0267857142857142
120 *22:3 *22:1 0
121 input22:A input22:A 0
*END

*D_NET *23 0.0009242213050600002
*CONN
*P i_copro_write_data[11] I
*I input23:A I
*CAP
85 *23:1 0.0009242213050600002
86 input23:A 0
*RES
122 *23:1 *23:2 10.473214285714285
123 input23:A input23:A 0
124 input23:A *23:1 0
*END

*D_NET *24 0.0007752004416600002
*CONN
*P i_copro_write_data[12] I
*I input24:A I
*CAP
87 *24:1 0.0006858781437400002
88 *24:3 8.932229792e-05
89 input24:A 0
*RES
125 *24:1 *24:2 7.741071428571428
126 *24:3 input24:A 0.8214285714285714
127 *24:3 *24:2 0
128 input24:A input24:A 0
*END

*D_NET *25 0.0016553939375199998
*CONN
*P i_copro_write_data[13] I
*I input25:A I
*CAP
90 *25:1 0.00024524937376
91 *25:2 0.00026215696806
92 *25:4 0.0011479875956999998
93 input25:A 0
94 *25:3 0
*RES
129 *25:1 input25:A 2.464285714285714
130 *25:2 *25:3 2.883928571428571
131 *25:4 *25:5 2.0539
132 input25:A input25:A 0
133 *25:1 *25:2 0
134 *25:3 *25:4 0
*END

*D_NET *26 0.0009745618340200002
*CONN
*P i_copro_write_data[14] I
*I input26:A I
*CAP
95 input26:A 5.034052896000001e-05
96 *26:2 0.0009242213050600002
97 *26:1 0
*RES
135 input26:A *26:1 0.4107142857142857
136 *26:2 *26:3 10.473214285714285
137 input26:A input26:A 0
138 *26:1 *26:2 0
*END

*D_NET *27 0.0007362186727000002
*CONN
*P i_copro_write_data[15] I
*I input27:A I
*CAP
98 *27:1 0.0006858781437400002
99 input27:A 5.034052896000001e-05
100 *27:3 0
*RES
139 *27:1 *27:2 7.741071428571428
140 input27:A *27:3 0.4107142857142857
141 *27:3 *27:2 0
142 input27:A input27:A 0
*END

*D_NET *28 0.00128196343814
*CONN
*P i_copro_write_data[16] I
*I input28:A I
*CAP
101 *28:1 0.0006858781437400002
102 input28:A 0.0005960852944
103 *28:3 0
*RES
143 *28:1 *28:2 7.741071428571428
144 input28:A *28:3 6.160714285714286
145 *28:3 *28:2 0
146 input28:A input28:A 0
*END

*D_NET *29 0.0008141822106200002
*CONN
*P i_copro_write_data[17] I
*I input29:A I
*CAP
104 *29:1 0.0006858781437400002
105 input29:A 0.00012830406688
106 *29:3 0
*RES
147 *29:1 *29:2 7.741071428571428
148 input29:A *29:3 1.232142857142857
149 *29:3 *29:2 0
150 input29:A input29:A 0
*END

*D_NET *30 0.0011095993194200002
*CONN
*P i_copro_write_data[18] I
*I input30:A I
*CAP
107 *30:1 0.0011095993194200002
108 input30:A 0
*RES
151 *30:1 *30:2 12.598214285714285
152 input30:A input30:A 0
153 input30:A *30:2 0
*END

*D_NET *31 0.00144938944612
*CONN
*P i_copro_write_data[19] I
*I input31:A I
*CAP
109 input31:A 5.034052896000001e-05
110 *31:2 0.00052698270286
111 *31:4 0.0008720662143000001
112 *31:1 0
113 *31:3 0
*RES
154 input31:A *31:1 0.4107142857142857
155 *31:2 *31:3 5.919642857142857
156 *31:4 *31:5 1.5494333333333334
157 input31:A input31:A 0
158 *31:1 *31:2 0
159 *31:3 *31:4 0
*END

*D_NET *32 0.00086747642306
*CONN
*P i_copro_write_data[1] I
*I input32:A I
*CAP
114 *32:1 0.00036808726198
115 *32:3 0.00049938916108
116 input32:A 0
*RES
160 *32:1 *32:2 4.098214285714286
161 *32:3 *32:2 1.232142857142857
162 *32:3 *32:4 4.249999999999999
163 input32:A input32:A 0
164 input32:A *32:1 0
*END

*D_NET *33 0.0007891838196600001
*CONN
*P i_copro_write_data[20] I
*I input33:A I
*CAP
117 *33:1 5.034052896000001e-05
118 *33:2 0.0007388432907000001
119 input33:A 0
*RES
165 *33:1 input33:A 0.4107142857142857
166 *33:2 *33:3 8.348214285714285
167 input33:A input33:A 0
168 *33:1 *33:2 0
*END

*D_NET *34 0.0007891838196600001
*CONN
*P i_copro_write_data[21] I
*I input34:A I
*CAP
120 *34:1 5.034052896000001e-05
121 *34:2 0.0007388432907000001
122 input34:A 0
*RES
169 *34:1 input34:A 0.4107142857142857
170 *34:2 *34:3 8.348214285714285
171 input34:A input34:A 0
172 *34:1 *34:2 0
*END

*D_NET *35 0.00040993717191999997
*CONN
*P i_copro_write_data[22] I
*I input35:A I
*CAP
123 *35:1 0.0003596407917
124 *35:3 5.029638022e-05
125 *35:4 0
126 input35:A 0
*RES
173 *35:1 *35:2 0.6125666666666667
174 *35:3 *35:4 0.45535714285714285
175 *35:4 *35:2 0
176 input35:A input35:A 0
177 input35:A *35:3 0
*END

*D_NET *36 0.00175012673872
*CONN
*P i_copro_write_data[23] I
*I input36:A I
*CAP
127 *36:1 5.029638022e-05
128 *36:3 0.0016998303585
129 input36:A 0
130 *36:2 0
*RES
178 *36:1 *36:2 0.45535714285714285
179 *36:3 *36:4 3.0628333333333337
180 input36:A input36:A 0
181 input36:A *36:1 0
182 *36:2 *36:3 0
*END

*D_NET *37 0.00038345459844
*CONN
*P i_copro_write_data[24] I
*I input37:A I
*CAP
131 *37:1 0.0003596407917
132 *37:3 2.3813806740000006e-05
133 input37:A 0
*RES
183 *37:1 *37:2 0.6125666666666667
184 *37:3 *37:4 0.15178571428571427
185 *37:3 *37:2 0
186 input37:A input37:A 0
187 input37:A *37:4 0
*END

*D_NET *38 0.0012768851552600001
*CONN
*P i_copro_write_data[25] I
*I input38:A I
*CAP
134 input38:A 0.00016728583584
135 *38:2 0.0011095993194200002
136 *38:1 0
*RES
188 input38:A *38:1 1.6428571428571428
189 *38:2 *38:3 12.598214285714285
190 *38:1 *38:3 0
191 input38:A input38:A 0
*END

*D_NET *39 0.001290058434
*CONN
*P i_copro_write_data[26] I
*I input39:A I
*CAP
137 input39:A 8.932229792e-05
138 *39:2 0.00036808726198
139 *39:4 0.0008326488740999999
140 *39:1 0
*RES
192 input39:A *39:1 0.8214285714285714
193 *39:2 *39:3 4.098214285714286
194 *39:4 *39:5 1.4773666666666667
195 input39:A input39:A 0
196 *39:1 *39:3 0
197 *39:2 *39:4 0
*END

*D_NET *40 0.00092481475468
*CONN
*P i_copro_write_data[27] I
*I input40:A I
*CAP
141 *40:1 0.00036808726198
142 *40:3 0.0005567274927
143 input40:A 0
144 *40:2 0
*RES
198 *40:1 *40:2 4.098214285714286
199 *40:3 *40:4 0.9729000000000001
200 input40:A input40:A 0
201 input40:A *40:1 0
202 *40:2 *40:3 0
*END

*D_NET *41 0.0009061291265400001
*CONN
*P i_copro_write_data[28] I
*I input41:A I
*CAP
145 *41:1 0.00016728583584
146 *41:2 0.0007388432907000001
147 input41:A 0
*RES
203 *41:1 input41:A 1.6428571428571428
204 *41:2 *41:3 8.348214285714285
205 input41:A input41:A 0
206 *41:1 *41:2 0
*END

*D_NET *42 0.00060702387292
*CONN
*P i_copro_write_data[29] I
*I input42:A I
*CAP
148 *42:1 5.029638022e-05
149 *42:3 0.0005567274927
150 input42:A 0
151 *42:2 0
*RES
207 *42:1 *42:2 0.45535714285714285
208 *42:3 *42:4 0.9729000000000001
209 input42:A input42:A 0
210 input42:A *42:1 0
211 *42:2 *42:3 0
*END

*D_NET *43 0.0010090910554200001
*CONN
*P i_copro_write_data[2] I
*I input43:A I
*CAP
152 *43:1 0.0006858781437400002
153 *43:3 0.00032321291168
154 input43:A 0
*RES
212 *43:1 *43:2 7.741071428571428