
.SUBCKT sky130_fd_sc_hd__o32a_4 A1 A2 A3 B1 B2 VGND VNB VPB VPWR X
MMPA0 VPWR A1 sndA1 VPB pfet_01v8_hvt m=2 w=1.0 l=0.15 mult=1 sa=0.265
+ sb=0.265 sd=0.28 topography=normal area=0.063 perim=1.14
MMPA1 sndA1 A2 sndA2 VPB pfet_01v8_hvt m=2 w=1.0 l=0.15 mult=1
+ sa=0.265 sb=0.265 sd=0.28 topography=normal area=0.063 perim=1.14
MMPA2 sndA2 A3 y VPB pfet_01v8_hvt m=2 w=1.0 l=0.15 mult=1 sa=0.265
+ sb=0.265 sd=0.28 topography=normal area=0.063 perim=1.14
MMPB0 VPWR B1 sndB1 VPB pfet_01v8_hvt m=2 w=1.0 l=0.15 mult=1 sa=0.265
+ sb=0.265 sd=0.28 topography=normal area=0.063 perim=1.14
MMPB1 sndB1 B2 y VPB pfet_01v8_hvt m=2 w=1.0 l=0.15 mult=1 sa=0.265
+ sb=0.265 sd=0.28 topography=normal area=0.063 perim=1.14
MMIPX X y VPWR VPB pfet_01v8_hvt m=4 w=1.0 l=0.15 mult=1 sa=0.265
+ sb=0.265 sd=0.28 topography=normal area=0.063 perim=1.14
MMNA0 pndA A1 VGND VNB nfet_01v8 m=2 w=0.65 l=0.15 mult=1 sa=0.265
+ sb=0.265 sd=0.28 topography=normal area=0.063 perim=1.14
MMNA1 pndA A2 VGND VNB nfet_01v8 m=2 w=0.65 l=0.15 mult=1 sa=0.265
+ sb=0.265 sd=0.28 topography=normal area=0.063 perim=1.14
MMNA2 pndA A3 VGND VNB nfet_01v8 m=2 w=0.65 l=0.15 mult=1 sa=0.265
+ sb=0.265 sd=0.28 topography=normal area=0.063 perim=1.14
MMNB0 y B1 pndA VNB nfet_01v8 m=2 w=0.65 l=0.15 mult=1 sa=0.265
+ sb=0.265 sd=0.28 topography=normal area=0.063 perim=1.14
MMNB1 y B2 pndA VNB nfet_01v8 m=2 w=0.65 l=0.15 mult=1 sa=0.265
+ sb=0.265 sd=0.28 topography=normal area=0.063 perim=1.14
MMINX X y VGND VNB nfet_01v8 m=4 w=0.65 l=0.15 mult=1 sa=0.265
+ sb=0.265 sd=0.28 topography=normal area=0.063 perim=1.14
.ENDS




.SUBCKT sky130_fd_sc_hd__o32a_2 A1 A2 A3 B1 B2 VGND VNB VPB VPWR X
MMPA0 VPWR A1 sndA1 VPB pfet_01v8_hvt m=1 w=1.0 l=0.15 mult=1 sa=0.265
+ sb=0.265 sd=0.28 topography=normal area=0.063 perim=1.14
MMPA1 sndA1 A2 sndA2 VPB pfet_01v8_hvt m=1 w=1.0 l=0.15 mult=1
+ sa=0.265 sb=0.265 sd=0.28 topography=normal area=0.063 perim=1.14
MMPA2 sndA2 A3 y VPB pfet_01v8_hvt m=1 w=1.0 l=0.15 mult=1 sa=0.265
+ sb=0.265 sd=0.28 topography=normal area=0.063 perim=1.14
MMPB0 VPWR B1 sndB1 VPB pfet_01v8_hvt m=1 w=1.0 l=0.15 mult=1 sa=0.265
+ sb=0.265 sd=0.28 topography=normal area=0.063 perim=1.14
MMPB1 sndB1 B2 y VPB pfet_01v8_hvt m=1 w=1.0 l=0.15 mult=1 sa=0.265
+ sb=0.265 sd=0.28 topography=normal area=0.063 perim=1.14
MMIPX X y VPWR VPB pfet_01v8_hvt m=2 w=1.0 l=0.15 mult=1 sa=0.265
+ sb=0.265 sd=0.28 topography=normal area=0.063 perim=1.14
MMNA0 pndA A1 VGND VNB nfet_01v8 m=1 w=0.65 l=0.15 mult=1 sa=0.265
+ sb=0.265 sd=0.28 topography=normal area=0.063 perim=1.14
MMNA1 pndA A2 VGND VNB nfet_01v8 m=1 w=0.65 l=0.15 mult=1 sa=0.265
+ sb=0.265 sd=0.28 topography=normal area=0.063 perim=1.14
MMNA2 pndA A3 VGND VNB nfet_01v8 m=1 w=0.65 l=0.15 mult=1 sa=0.265
+ sb=0.265 sd=0.28 topography=normal area=0.063 perim=1.14
MMNB0 y B1 pndA VNB nfet_01v8 m=1 w=0.65 l=0.15 mult=1 sa=0.265
+ sb=0.265 sd=0.28 topography=normal area=0.063 perim=1.14
MMNB1 y B2 pndA VNB nfet_01v8 m=1 w=0.65 l=0.15 mult=1 sa=0.265
+ sb=0.265 sd=0.28 topography=normal area=0.063 perim=1.14
MMINX X y VGND VNB nfet_01v8 m=2 w=0.65 l=0.15 mult=1 sa=0.265
+ sb=0.265 sd=0.28 topography=normal area=0.063 perim=1.14
.ENDS




.SUBCKT sky130_fd_sc_hd__o32a_1 A1 A2 A3 B1 B2 VGND VNB VPB VPWR X
MMPA0 VPWR A1 sndA1 VPB pfet_01v8_hvt m=1 w=1.0 l=0.15 mult=1 sa=0.265
+ sb=0.265 sd=0.28 topography=normal area=0.063 perim=1.14
MMPA1 sndA1 A2 sndA2 VPB pfet_01v8_hvt m=1 w=1.0 l=0.15 mult=1
+ sa=0.265 sb=0.265 sd=0.28 topography=normal area=0.063 perim=1.14
MMPA2 sndA2 A3 y VPB pfet_01v8_hvt m=1 w=1.0 l=0.15 mult=1 sa=0.265
+ sb=0.265 sd=0.28 topography=normal area=0.063 perim=1.14
MMPB0 VPWR B1 sndB1 VPB pfet_01v8_hvt m=1 w=1.0 l=0.15 mult=1 sa=0.265
+ sb=0.265 sd=0.28 topography=normal area=0.063 perim=1.14
MMPB1 sndB1 B2 y VPB pfet_01v8_hvt m=1 w=1.0 l=0.15 mult=1 sa=0.265
+ sb=0.265 sd=0.28 topography=normal area=0.063 perim=1.14
MMIPX X y VPWR VPB pfet_01v8_hvt m=1 w=1.0 l=0.15 mult=1 sa=0.265
+ sb=0.265 sd=0.28 topography=normal area=0.063 perim=1.14
MMNA0 pndA A1 VGND VNB nfet_01v8 m=1 w=0.65 l=0.15 mult=1 sa=0.265
+ sb=0.265 sd=0.28 topography=normal area=0.063 perim=1.14
MMNA1 pndA A2 VGND VNB nfet_01v8 m=1 w=0.65 l=0.15 mult=1 sa=0.265
+ sb=0.265 sd=0.28 topography=normal area=0.063 perim=1.14
MMNA2 pndA A3 VGND VNB nfet_01v8 m=1 w=0.65 l=0.15 mult=1 sa=0.265
+ sb=0.265 sd=0.28 topography=normal area=0.063 perim=1.14
MMNB0 y B1 pndA VNB nfet_01v8 m=1 w=0.65 l=0.15 mult=1 sa=0.265
+ sb=0.265 sd=0.28 topography=normal area=0.063 perim=1.14
MMNB1 y B2 pndA VNB nfet_01v8 m=1 w=0.65 l=0.15 mult=1 sa=0.265
+ sb=0.265 sd=0.28 topography=normal area=0.063 perim=1.14
MMINX X y VGND VNB nfet_01v8 m=1 w=0.65 l=0.15 mult=1 sa=0.265
+ sb=0.265 sd=0.28 topography=normal area=0.063 perim=1.14
.ENDS




.SUBCKT sky130_fd_sc_hd__a2111o_2 A1 A2 B1 C1 D1 VGND VNB VPB VPWR X
MMPA0 pndA A1 VPWR VPB pfet_01v8_hvt m=1 w=1.0 l=0.15 mult=1 sa=0.265
+ sb=0.265 sd=0.28 topography=normal area=0.063 perim=1.14
MMPA1 pndA A2 VPWR VPB pfet_01v8_hvt m=1 w=1.0 l=0.15 mult=1 sa=0.265
+ sb=0.265 sd=0.28 topography=normal area=0.063 perim=1.14
MMPB0 pndB B1 pndA VPB pfet_01v8_hvt m=1 w=1.0 l=0.15 mult=1 sa=0.265
+ sb=0.265 sd=0.28 topography=normal area=0.063 perim=1.14
MMPC0 pndC C1 pndB VPB pfet_01v8_hvt m=1 w=1.0 l=0.15 mult=1 sa=0.265
+ sb=0.265 sd=0.28 topography=normal area=0.063 perim=1.14
MMPD0 y D1 pndC VPB pfet_01v8_hvt m=1 w=1.0 l=0.15 mult=1 sa=0.265
+ sb=0.265 sd=0.28 topography=normal area=0.063 perim=1.14
MMIPX X y VPWR VPB pfet_01v8_hvt m=2 w=1.0 l=0.15 mult=1 sa=0.265
+ sb=0.265 sd=0.28 topography=normal area=0.063 perim=1.14
MMNA0 y A1 sndA1 VNB nfet_01v8 m=1 w=0.65 l=0.15 mult=1 sa=0.265
+ sb=0.265 sd=0.28 topography=normal area=0.063 perim=1.14
MMNA1 sndA1 A2 VGND VNB nfet_01v8 m=1 w=0.65 l=0.15 mult=1 sa=0.265
+ sb=0.265 sd=0.28 topography=normal area=0.063 perim=1.14
MMNB0 y B1 VGND VNB nfet_01v8 m=1 w=0.65 l=0.15 mult=1 sa=0.265
+ sb=0.265 sd=0.28 topography=normal area=0.063 perim=1.14
MMNC0 y C1 VGND VNB nfet_01v8 m=1 w=0.65 l=0.15 mult=1 sa=0.265
+ sb=0.265 sd=0.28 topography=normal area=0.063 perim=1.14
MMND0 y D1 VGND VNB nfet_01v8 m=1 w=0.65 l=0.15 mult=1 sa=0.265
+ sb=0.265 sd=0.28 topography=normal area=0.063 perim=1.14
MMINX X y VGND VNB nfet_01v8 m=2 w=0.65 l=0.15 mult=1 sa=0.265
+ sb=0.265 sd=0.28 topography=normal area=0.063 perim=1.14
.ENDS




.SUBCKT sky130_fd_sc_hd__a2111o_1 A1 A2 B1 C1 D1 VGND VNB VPB VPWR X
MMPA0 pndA A1 VPWR VPB pfet_01v8_hvt m=1 w=1.0 l=0.15 mult=1 sa=0.265
+ sb=0.265 sd=0.28 topography=normal area=0.063 perim=1.14
MMPA1 pndA A2 VPWR VPB pfet_01v8_hvt m=1 w=1.0 l=0.15 mult=1 sa=0.265
+ sb=0.265 sd=0.28 topography=normal area=0.063 perim=1.14
MMPB0 pndB B1 pndA VPB pfet_01v8_hvt m=1 w=1.0 l=0.15 mult=1 sa=0.265
+ sb=0.265 sd=0.28 topography=normal area=0.063 perim=1.14
MMPC0 pndC C1 pndB VPB pfet_01v8_hvt m=1 w=1.0 l=0.15 mult=1 sa=0.265
+ sb=0.265 sd=0.28 topography=normal area=0.063 perim=1.14
MMPD0 y D1 pndC VPB pfet_01v8_hvt m=1 w=1.0 l=0.15 mult=1 sa=0.265
+ sb=0.265 sd=0.28 topography=normal area=0.063 perim=1.14
MMIPX X y VPWR VPB pfet_01v8_hvt m=1 w=1.0 l=0.15 mult=1 sa=0.265
+ sb=0.265 sd=0.28 topography=normal area=0.063 perim=1.14
MMNA0 y A1 sndA1 VNB nfet_01v8 m=1 w=0.65 l=0.15 mult=1 sa=0.265
+ sb=0.265 sd=0.28 topography=normal area=0.063 perim=1.14
MMNA1 sndA1 A2 VGND VNB nfet_01v8 m=1 w=0.65 l=0.15 mult=1 sa=0.265
+ sb=0.265 sd=0.28 topography=normal area=0.063 perim=1.14
MMNB0 y B1 VGND VNB nfet_01v8 m=1 w=0.65 l=0.15 mult=1 sa=0.265
+ sb=0.265 sd=0.28 topography=normal area=0.063 perim=1.14
MMNC0 y C1 VGND VNB nfet_01v8 m=1 w=0.65 l=0.15 mult=1 sa=0.265
+ sb=0.265 sd=0.28 topography=normal area=0.063 perim=1.14
MMND0 y D1 VGND VNB nfet_01v8 m=1 w=0.65 l=0.15 mult=1 sa=0.265
+ sb=0.265 sd=0.28 topography=normal area=0.063 perim=1.14
MMINX X y VGND VNB nfet_01v8 m=1 w=0.65 l=0.15 mult=1 sa=0.265
+ sb=0.265 sd=0.28 topography=normal area=0.063 perim=1.14
.ENDS




.SUBCKT sky130_fd_sc_hd__a2111o_4 A1 A2 B1 C1 D1 VGND VNB VPB VPWR X
MMPA0 pndA A1 VPWR VPB pfet_01v8_hvt m=2 w=1.0 l=0.15 mult=1 sa=0.265
+ sb=0.265 sd=0.28 topography=normal area=0.063 perim=1.14
MMPA1 pndA A2 VPWR VPB pfet_01v8_hvt m=2 w=1.0 l=0.15 mult=1 sa=0.265
+ sb=0.265 sd=0.28 topography=normal area=0.063 perim=1.14
MMPB0 pndB B1 pndA VPB pfet_01v8_hvt m=2 w=1.0 l=0.15 mult=1 sa=0.265
+ sb=0.265 sd=0.28 topography=normal area=0.063 perim=1.14
MMPC0 pndC C1 pndB VPB pfet_01v8_hvt m=2 w=1.0 l=0.15 mult=1 sa=0.265
+ sb=0.265 sd=0.28 topography=normal area=0.063 perim=1.14
MMPD0 y D1 pndC VPB pfet_01v8_hvt m=2 w=1.0 l=0.15 mult=1 sa=0.265
+ sb=0.265 sd=0.28 topography=normal area=0.063 perim=1.14
MMIPX X y VPWR VPB pfet_01v8_hvt m=4 w=1.0 l=0.15 mult=1 sa=0.265
+ sb=0.265 sd=0.28 topography=normal area=0.063 perim=1.14
MMNA0 y A1 sndA1 VNB nfet_01v8 m=2 w=0.65 l=0.15 mult=1 sa=0.265
+ sb=0.265 sd=0.28 topography=normal area=0.063 perim=1.14
MMNA1 sndA1 A2 VGND VNB nfet_01v8 m=2 w=0.65 l=0.15 mult=1 sa=0.265
+ sb=0.265 sd=0.28 topography=normal area=0.063 perim=1.14
MMNB0 y B1 VGND VNB nfet_01v8 m=2 w=0.65 l=0.15 mult=1 sa=0.265
+ sb=0.265 sd=0.28 topography=normal area=0.063 perim=1.14
MMNC0 y C1 VGND VNB nfet_01v8 m=2 w=0.65 l=0.15 mult=1 sa=0.265
+ sb=0.265 sd=0.28 topography=normal area=0.063 perim=1.14
MMND0 y D1 VGND VNB nfet_01v8 m=2 w=0.65 l=0.15 mult=1 sa=0.265
+ sb=0.265 sd=0.28 topography=normal area=0.063 perim=1.14
MMINX X y VGND VNB nfet_01v8 m=4 w=0.65 l=0.15 mult=1 sa=0.265
+ sb=0.265 sd=0.28 topography=normal area=0.063 perim=1.14
.ENDS




.SUBCKT sky130_fd_sc_hd__fa_2 A B CIN VGND VNB VPB VPWR COUT SUM
MMNs1s nint1 majb sumb VNB nfet_01v8 m=1 w=0.42 l=0.15 mult=1 sa=0.265
+ sb=0.265 sd=0.28 topography=normal area=0.063 perim=1.14
MMIN2 COUT majb VGND VNB nfet_01v8 m=2 w=0.65 l=0.15 mult=1 sa=0.265
+ sb=0.265 sd=0.28 topography=normal area=0.063 perim=1.14
MMIN3 SUM sumb VGND VNB nfet_01v8 m=2 w=0.65 l=0.15 mult=1 sa=0.265
+ sb=0.265 sd=0.28 topography=normal area=0.063 perim=1.14
MMNmaj10 majb B sndNAp1 VNB nfet_01v8 m=1 w=0.42 l=0.15 mult=1
+ sa=0.265 sb=0.265 sd=0.28 topography=normal area=0.063 perim=1.14
MMNmaj11 sndNAp1 A VGND VNB nfet_01v8 m=1 w=0.42 l=0.15 mult=1
+ sa=0.265 sb=0.265 sd=0.28 topography=normal area=0.063 perim=1.14
MMNmaj30 majb CIN nmajmid VNB nfet_01v8 m=1 w=0.42 l=0.15 mult=1
+ sa=0.265 sb=0.265 sd=0.28 topography=normal area=0.063 perim=1.14
MMNmaj21 nmajmid A VGND VNB nfet_01v8 m=1 w=0.42 l=0.15 mult=1
+ sa=0.265 sb=0.265 sd=0.28 topography=normal area=0.063 perim=1.14
MMNmaj20 VGND B nmajmid VNB nfet_01v8 m=1 w=0.42 l=0.15 mult=1
+ sa=0.265 sb=0.265 sd=0.28 topography=normal area=0.063 perim=1.14
MMNs2s0 VGND A sndNAn4 VNB nfet_01v8 m=1 w=0.42 l=0.15 mult=1 sa=0.265
+ sb=0.265 sd=0.28 topography=normal area=0.063 perim=1.14
MMNs2s1 sndNAn4 B sndNBn4 VNB nfet_01v8 m=1 w=0.42 l=0.15 mult=1
+ sa=0.265 sb=0.265 sd=0.28 topography=normal area=0.063 perim=1.14
MMNs2s2 sndNBn4 CIN sumb VNB nfet_01v8 m=1 w=0.42 l=0.15 mult=1
+ sa=0.265 sb=0.265 sd=0.28 topography=normal area=0.063 perim=1.14
MMNs3s0 nint1 A VGND VNB nfet_01v8 m=1 w=0.42 l=0.15 mult=1 sa=0.265
+ sb=0.265 sd=0.28 topography=normal area=0.063 perim=1.14
MMNs3s1 nint1 B VGND VNB nfet_01v8 m=1 w=0.42 l=0.15 mult=1 sa=0.265
+ sb=0.265 sd=0.28 topography=normal area=0.063 perim=1.14
MMNs3s2 nint1 CIN VGND VNB nfet_01v8 m=1 w=0.42 l=0.15 mult=1 sa=0.265
+ sb=0.265 sd=0.28 topography=normal area=0.063 perim=1.14
MMIP2 COUT majb VPWR VPB pfet_01v8_hvt m=2 w=1.0 l=0.15 mult=1
+ sa=0.265 sb=0.265 sd=0.28 topography=normal area=0.063 perim=1.14
MMIP3 SUM sumb VPWR VPB pfet_01v8_hvt m=2 w=1.0 l=0.15 mult=1 sa=0.265
+ sb=0.265 sd=0.28 topography=normal area=0.063 perim=1.14
MMPmaj10 VPWR A sndPAp1 VPB pfet_01v8_hvt m=1 w=0.63 l=0.15 mult=1
+ sa=0.265 sb=0.265 sd=0.28 topography=normal area=0.063 perim=1.14
MMPmaj11 sndPAp1 B majb VPB pfet_01v8_hvt m=1 w=0.63 l=0.15 mult=1
+ sa=0.265 sb=0.265 sd=0.28 topography=normal area=0.063 perim=1.14
MMPmaj20 VPWR B pmajmid VPB pfet_01v8_hvt m=1 w=0.63 l=0.15 mult=1
+ sa=0.265 sb=0.265 sd=0.28 topography=normal area=0.063 perim=1.14
MMPmaj30 pmajmid CIN majb VPB pfet_01v8_hvt m=1 w=0.63 l=0.15 mult=1
+ sa=0.265 sb=0.265 sd=0.28 topography=normal area=0.063 perim=1.14
MMPmaj21 pmajmid A VPWR VPB pfet_01v8_hvt m=1 w=0.63 l=0.15 mult=1
+ sa=0.265 sb=0.265 sd=0.28 topography=normal area=0.063 perim=1.14
MMPs2s0 VPWR A sndPAp4 VPB pfet_01v8_hvt m=1 w=0.63 l=0.15 mult=1
+ sa=0.265 sb=0.265 sd=0.28 topography=normal area=0.063 perim=1.14
MMPs2s1 sndPAp4 B sndPBp4 VPB pfet_01v8_hvt m=1 w=0.63 l=0.15 mult=1
+ sa=0.265 sb=0.265 sd=0.28 topography=normal area=0.063 perim=1.14
MMPs2s2 sndPBp4 CIN sumb VPB pfet_01v8_hvt m=1 w=0.64 l=0.15 mult=1
+ sa=0.265 sb=0.265 sd=0.28 topography=normal area=0.063 perim=1.14
MMPs3s0 pint1 A VPWR VPB pfet_01v8_hvt m=1 w=0.64 l=0.15 mult=1
+ sa=0.265 sb=0.265 sd=0.28 topography=normal area=0.063 perim=1.14
MMPs3s1 pint1 B VPWR VPB pfet_01v8_hvt m=1 w=0.64 l=0.15 mult=1
+ sa=0.265 sb=0.265 sd=0.28 topography=normal area=0.063 perim=1.14
MMPs3s2 pint1 CIN VPWR VPB pfet_01v8_hvt m=1 w=0.64 l=0.15 mult=1
+ sa=0.265 sb=0.265 sd=0.28 topography=normal area=0.063 perim=1.14
MMPs1s pint1 majb sumb VPB pfet_01v8_hvt m=1 w=0.64 l=0.15 mult=1
+ sa=0.265 sb=0.265 sd=0.28 topography=normal area=0.063 perim=1.14
.ENDS




.SUBCKT sky130_fd_sc_hd__fa_1 A B CIN VGND VNB VPB VPWR COUT SUM
MMNs1s nint1 majb sumb VNB nfet_01v8 m=1 w=0.42 l=0.15 mult=1 sa=0.265
+ sb=0.265 sd=0.28 topography=normal area=0.063 perim=1.14
MMIN2 COUT majb VGND VNB nfet_01v8 m=1 w=0.65 l=0.15 mult=1 sa=0.265
+ sb=0.265 sd=0.28 topography=normal area=0.063 perim=1.14
MMIN3 SUM sumb VGND VNB nfet_01v8 m=1 w=0.65 l=0.15 mult=1 sa=0.265
+ sb=0.265 sd=0.28 topography=normal area=0.063 perim=1.14
MMNmaj10 majb B sndNAp1 VNB nfet_01v8 m=1 w=0.42 l=0.15 mult=1
+ sa=0.265 sb=0.265 sd=0.28 topography=normal area=0.063 perim=1.14
MMNmaj11 sndNAp1 A VGND VNB nfet_01v8 m=1 w=0.42 l=0.15 mult=1
+ sa=0.265 sb=0.265 sd=0.28 topography=normal area=0.063 perim=1.14
MMNmaj30 majb CIN sndNCINn3 VNB nfet_01v8 m=1 w=0.42 l=0.15 mult=1
+ sa=0.265 sb=0.265 sd=0.28 topography=normal area=0.063 perim=1.14
MMNmaj31 sndNCINn3 B VGND VNB nfet_01v8 m=1 w=0.42 l=0.15 mult=1
+ sa=0.265 sb=0.265 sd=0.28 topography=normal area=0.063 perim=1.14
MMNmaj20 VGND A sndNCINn3 VNB nfet_01v8 m=1 w=0.42 l=0.15 mult=1
+ sa=0.265 sb=0.265 sd=0.28 topography=normal area=0.063 perim=1.14
MMNs2s0 VGND A sndNAn4 VNB nfet_01v8 m=1 w=0.42 l=0.15 mult=1 sa=0.265
+ sb=0.265 sd=0.28 topography=normal area=0.063 perim=1.14
MMNs2s1 sndNAn4 B sndNBn4 VNB nfet_01v8 m=1 w=0.42 l=0.15 mult=1
+ sa=0.265 sb=0.265 sd=0.28 topography=normal area=0.063 perim=1.14
MMNs2s2 sndNBn4 CIN sumb VNB nfet_01v8 m=1 w=0.42 l=0.15 mult=1
+ sa=0.265 sb=0.265 sd=0.28 topography=normal area=0.063 perim=1.14
MMNs3s0 nint1 B VGND VNB nfet_01v8 m=1 w=0.42 l=0.15 mult=1 sa=0.265
+ sb=0.265 sd=0.28 topography=normal area=0.063 perim=1.14
MMNs3s1 nint1 A VGND VNB nfet_01v8 m=1 w=0.42 l=0.15 mult=1 sa=0.265
+ sb=0.265 sd=0.28 topography=normal area=0.063 perim=1.14
MMNs3s2 nint1 CIN VGND VNB nfet_01v8 m=1 w=0.42 l=0.15 mult=1 sa=0.265
+ sb=0.265 sd=0.28 topography=normal area=0.063 perim=1.14
MMIP2 COUT majb VPWR VPB pfet_01v8_hvt m=1 w=1.0 l=0.15 mult=1
+ sa=0.265 sb=0.265 sd=0.28 topography=normal area=0.063 perim=1.14
MMIP3 SUM sumb VPWR VPB pfet_01v8_hvt m=1 w=1.0 l=0.15 mult=1 sa=0.265
+ sb=0.265 sd=0.28 topography=normal area=0.063 perim=1.14
MMPmaj10 VPWR A sndPAp1 VPB pfet_01v8_hvt m=1 w=0.42 l=0.15 mult=1
+ sa=0.265 sb=0.265 sd=0.28 topography=normal area=0.063 perim=1.14
MMPmaj11 sndPAp1 B majb VPB pfet_01v8_hvt m=1 w=0.42 l=0.15 mult=1
+ sa=0.265 sb=0.265 sd=0.28 topography=normal area=0.063 perim=1.14
MMPmaj20 VPWR A sndPCINp3 VPB pfet_01v8_hvt m=1 w=0.42 l=0.15 mult=1
+ sa=0.265 sb=0.265 sd=0.28 topography=normal area=0.063 perim=1.14
MMPmaj21 sndPCINp3 CIN majb VPB pfet_01v8_hvt m=1 w=0.42 l=0.15 mult=1
+ sa=0.265 sb=0.265 sd=0.28 topography=normal area=0.063 perim=1.14
MMPmaj31 sndPCINp3 B VPWR VPB pfet_01v8_hvt m=1 w=0.42 l=0.15 mult=1
+ sa=0.265 sb=0.265 sd=0.28 topography=normal area=0.063 perim=1.14
MMPs2s0 VPWR A sndPAp4 VPB pfet_01v8_hvt m=1 w=0.42 l=0.15 mult=1
+ sa=0.265 sb=0.265 sd=0.28 topography=normal area=0.063 perim=1.14
MMPs2s1 sndPAp4 B sndPBp4 VPB pfet_01v8_hvt m=1 w=0.42 l=0.15 mult=1
+ sa=0.265 sb=0.265 sd=0.28 topography=normal area=0.063 perim=1.14
MMPs2s2 sndPBp4 CIN sumb VPB pfet_01v8_hvt m=1 w=0.42 l=0.15 mult=1
+ sa=0.265 sb=0.265 sd=0.28 topography=normal area=0.063 perim=1.14
MMPs3s0 pint1 B VPWR VPB pfet_01v8_hvt m=1 w=0.42 l=0.15 mult=1
+ sa=0.265 sb=0.265 sd=0.28 topography=normal area=0.063 perim=1.14
MMPs3s1 pint1 A VPWR VPB pfet_01v8_hvt m=1 w=0.42 l=0.15 mult=1
+ sa=0.265 sb=0.265 sd=0.28 topography=normal area=0.063 perim=1.14
MMPs3s2 pint1 CIN VPWR VPB pfet_01v8_hvt m=1 w=0.42 l=0.15 mult=1
+ sa=0.265 sb=0.265 sd=0.28 topography=normal area=0.063 perim=1.14
MMPs1s pint1 majb sumb VPB pfet_01v8_hvt m=1 w=0.42 l=0.15 mult=1
+ sa=0.265 sb=0.265 sd=0.28 topography=normal area=0.063 perim=1.14
.ENDS




.SUBCKT sky130_fd_sc_hd__fa_4 A B CIN VGND VNB VPB VPWR COUT SUM
MMNs1s nint1 majb sumb VNB nfet_01v8 m=1 w=0.42 l=0.15 mult=1 sa=0.265
+ sb=0.265 sd=0.28 topography=normal area=0.063 perim=1.14
MMIN2 COUT majb VGND VNB nfet_01v8 m=4 w=0.65 l=0.15 mult=1 sa=0.265
+ sb=0.265 sd=0.28 topography=normal area=0.063 perim=1.14
MMIN3 SUM sumb VGND VNB nfet_01v8 m=4 w=0.65 l=0.15 mult=1 sa=0.265
+ sb=0.265 sd=0.28 topography=normal area=0.063 perim=1.14
MMNmaj10 majb B sndNAp1 VNB nfet_01v8 m=1 w=0.42 l=0.15 mult=1
+ sa=0.265 sb=0.265 sd=0.28 topography=normal area=0.063 perim=1.14
MMNmaj11 sndNAp1 A VGND VNB nfet_01v8 m=1 w=0.42 l=0.15 mult=1
+ sa=0.265 sb=0.265 sd=0.28 topography=normal area=0.063 perim=1.14
MMNmaj30 majb CIN nmajmid VNB nfet_01v8 m=1 w=0.42 l=0.15 mult=1
+ sa=0.265 sb=0.265 sd=0.28 topography=normal area=0.063 perim=1.14
MMNmaj21 nmajmid A VGND VNB nfet_01v8 m=1 w=0.42 l=0.15 mult=1
+ sa=0.265 sb=0.265 sd=0.28 topography=normal area=0.063 perim=1.14
MMNmaj20 VGND B nmajmid VNB nfet_01v8 m=1 w=0.42 l=0.15 mult=1
+ sa=0.265 sb=0.265 sd=0.28 topography=normal area=0.063 perim=1.14
MMNs2s0 VGND A sndNAn4 VNB nfet_01v8 m=1 w=0.42 l=0.15 mult=1 sa=0.265
+ sb=0.265 sd=0.28 topography=normal area=0.063 perim=1.14
MMNs2s1 sndNAn4 B sndNBn4 VNB nfet_01v8 m=1 w=0.42 l=0.15 mult=1
+ sa=0.265 sb=0.265 sd=0.28 topography=normal area=0.063 perim=1.14
MMNs2s2 sndNBn4 CIN sumb VNB nfet_01v8 m=1 w=0.42 l=0.15 mult=1
+ sa=0.265 sb=0.265 sd=0.28 topography=normal area=0.063 perim=1.14
MMNs3s0 nint1 A VGND VNB nfet_01v8 m=1 w=0.42 l=0.15 mult=1 sa=0.265
+ sb=0.265 sd=0.28 topography=normal area=0.063 perim=1.14
MMNs3s1 nint1 B VGND VNB nfet_01v8 m=1 w=0.42 l=0.15 mult=1 sa=0.265
+ sb=0.265 sd=0.28 topography=normal area=0.063 perim=1.14
MMNs3s2 nint1 CIN VGND VNB nfet_01v8 m=1 w=0.42 l=0.15 mult=1 sa=0.265
+ sb=0.265 sd=0.28 topography=normal area=0.063 perim=1.14
MMIP2 COUT majb VPWR VPB pfet_01v8_hvt m=4 w=1.0 l=0.15 mult=1
+ sa=0.265 sb=0.265 sd=0.28 topography=normal area=0.063 perim=1.14
MMIP3 SUM sumb VPWR VPB pfet_01v8_hvt m=4 w=1.0 l=0.15 mult=1 sa=0.265
+ sb=0.265 sd=0.28 topography=normal area=0.063 perim=1.14
MMPmaj10 VPWR A sndPAp1 VPB pfet_01v8_hvt m=1 w=0.63 l=0.15 mult=1
+ sa=0.265 sb=0.265 sd=0.28 topography=normal area=0.063 perim=1.14
MMPmaj11 sndPAp1 B majb VPB pfet_01v8_hvt m=1 w=0.63 l=0.15 mult=1
+ sa=0.265 sb=0.265 sd=0.28 topography=normal area=0.063 perim=1.14
MMPmaj20 VPWR B pmajmid VPB pfet_01v8_hvt m=1 w=0.64 l=0.15 mult=1
+ sa=0.265 sb=0.265 sd=0.28 topography=normal area=0.063 perim=1.14
MMPmaj30 pmajmid CIN majb VPB pfet_01v8_hvt m=1 w=0.64 l=0.15 mult=1
+ sa=0.265 sb=0.265 sd=0.28 topography=normal area=0.063 perim=1.14
MMPmaj21 pmajmid A VPWR VPB pfet_01v8_hvt m=1 w=0.64 l=0.15 mult=1
+ sa=0.265 sb=0.265 sd=0.28 topography=normal area=0.063 perim=1.14
MMPs2s0 VPWR A sndPAp4 VPB pfet_01v8_hvt m=1 w=0.63 l=0.15 mult=1
+ sa=0.265 sb=0.265 sd=0.28 topography=normal area=0.063 perim=1.14
MMPs2s1 sndPAp4 B sndPBp4 VPB pfet_01v8_hvt m=1 w=0.63 l=0.15 mult=1
+ sa=0.265 sb=0.265 sd=0.28 topography=normal area=0.063 perim=1.14
MMPs2s2 sndPBp4 CIN sumb VPB pfet_01v8_hvt m=1 w=0.64 l=0.15 mult=1
+ sa=0.265 sb=0.265 sd=0.28 topography=normal area=0.063 perim=1.14
MMPs3s0 pint1 A VPWR VPB pfet_01v8_hvt m=1 w=0.64 l=0.15 mult=1
+ sa=0.265 sb=0.265 sd=0.28 topography=normal area=0.063 perim=1.14
MMPs3s1 pint1 B VPWR VPB pfet_01v8_hvt m=1 w=0.64 l=0.15 mult=1
+ sa=0.265 sb=0.265 sd=0.28 topography=normal area=0.063 perim=1.14
MMPs3s2 pint1 CIN VPWR VPB pfet_01v8_hvt m=1 w=0.64 l=0.15 mult=1
+ sa=0.265 sb=0.265 sd=0.28 topography=normal area=0.063 perim=1.14
MMPs1s pint1 majb sumb VPB pfet_01v8_hvt m=1 w=0.64 l=0.15 mult=1
+ sa=0.265 sb=0.265 sd=0.28 topography=normal area=0.063 perim=1.14
.ENDS




.SUBCKT sky130_fd_sc_hd__dlymetal6s4s_1 A VGND VNB VPB VPWR X
MMIN1 Ab X VGND VNB nfet_01v8 m=1 w=0.42 l=0.15 mult=1 sa=0.265
+ sb=0.265 sd=0.28 topography=normal area=0.063 perim=1.14
MMIN2 net59 Ab VGND VNB nfet_01v8 m=1 w=0.65 l=0.15 mult=1 sa=0.265
+ sb=0.265 sd=0.28 topography=normal area=0.063 perim=1.14
MI6 X net47 VGND VNB nfet_01v8 m=1 w=0.65 l=0.15 mult=1 sa=0.265
+ sb=0.265 sd=0.28 topography=normal area=0.063 perim=1.14
MI15 net51 A VGND VNB nfet_01v8 m=1 w=0.42 l=0.15 mult=1 sa=0.265
+ sb=0.265 sd=0.28 topography=normal area=0.063 perim=1.14
MI9 net47 net43 VGND VNB nfet_01v8 m=1 w=0.42 l=0.15 mult=1 sa=0.265
+ sb=0.265 sd=0.28 topography=normal area=0.063 perim=1.14
MI16 net43 net51 VGND VNB nfet_01v8 m=1 w=0.65 l=0.15 mult=1 sa=0.265
+ sb=0.265 sd=0.28 topography=normal area=0.063 perim=1.14
MMIP1 Ab X VPWR VPB pfet_01v8_hvt m=1 w=0.42 l=0.15 mult=1 sa=0.265
+ sb=0.265 sd=0.28 topography=normal area=0.063 perim=1.14
MMIP2 net59 Ab VPWR VPB pfet_01v8_hvt m=1 w=1.0 l=0.15 mult=1 sa=0.265
+ sb=0.265 sd=0.28 topography=normal area=0.063 perim=1.14
MI7 X net47 VPWR VPB pfet_01v8_hvt m=1 w=1.0 l=0.15 mult=1 sa=0.265
+ sb=0.265 sd=0.28 topography=normal area=0.063 perim=1.14
MI8 net47 net43 VPWR VPB pfet_01v8_hvt m=1 w=0.42 l=0.15 mult=1
+ sa=0.265 sb=0.265 sd=0.28 topography=normal area=0.063 perim=1.14
MI18 net43 net51 VPWR VPB pfet_01v8_hvt m=1 w=1.0 l=0.15 mult=1
+ sa=0.265 sb=0.265 sd=0.28 topography=normal area=0.063 perim=1.14
MI17 net51 A VPWR VPB pfet_01v8_hvt m=1 w=0.42 l=0.15 mult=1 sa=0.265
+ sb=0.265 sd=0.28 topography=normal area=0.063 perim=1.14
.ENDS




.SUBCKT sky130_fd_sc_hd__sdfrtp_2 CLK D RESET_B SCD SCE VGND VNB VPB VPWR Q
MI642 clkneg CLK VGND VNB nfet_01v8 m=1 w=0.65 l=0.15 mult=1 sa=0.265
+ sb=0.265 sd=0.28 topography=normal area=0.063 perim=1.14
MI636 clkpos clkneg VGND VNB nfet_01v8 m=1 w=0.65 l=0.15 mult=1
+ sa=0.265 sb=0.265 sd=0.28 topography=normal area=0.063 perim=1.14
MI42 db clkneg M0 VNB nfet_01v8 m=1 w=0.36 l=0.15 mult=1 sa=0.265
+ sb=0.265 sd=0.28 topography=normal area=0.063 perim=1.14
MI656 net84 S0 net114 VNB nfet_01v8 m=1 w=0.42 l=0.15 mult=1 sa=0.265
+ sb=0.265 sd=0.28 topography=normal area=0.063 perim=1.14
MI657 net114 RESET_B VGND VNB nfet_01v8 m=1 w=0.42 l=0.15 mult=1
+ sa=0.265 sb=0.265 sd=0.28 topography=normal area=0.063 perim=1.14
MI33 net107 RESET_B VGND VNB nfet_01v8 m=1 w=0.42 l=0.15 mult=1
+ sa=0.265 sb=0.265 sd=0.28 topography=normal area=0.063 perim=1.14
MI634 sceb SCE VGND VNB nfet_01v8 m=1 w=0.42 l=0.15 mult=1 sa=0.265
+ sb=0.265 sd=0.28 topography=normal area=0.063 perim=1.14
MI4 M0 clkpos net95 VNB nfet_01v8 m=1 w=0.36 l=0.15 mult=1 sa=0.265
+ sb=0.265 sd=0.28 topography=normal area=0.063 perim=1.14
MI34 net95 M1 net107 VNB nfet_01v8 m=1 w=0.42 l=0.15 mult=1 sa=0.265
+ sb=0.265 sd=0.28 topography=normal area=0.063 perim=1.14
MI655 S0 clkneg net90 VNB nfet_01v8 m=1 w=0.36 l=0.15 mult=1 sa=0.265
+ sb=0.265 sd=0.28 topography=normal area=0.063 perim=1.14
MI652 Q net84 VGND VNB nfet_01v8 m=2 w=0.65 l=0.15 mult=1 sa=0.265
+ sb=0.265 sd=0.28 topography=normal area=0.063 perim=1.14
MI654 net90 net84 VGND VNB nfet_01v8 m=1 w=0.42 l=0.15 mult=1 sa=0.265
+ sb=0.265 sd=0.28 topography=normal area=0.063 perim=1.14
MI647 M1 M0 VGND VNB nfet_01v8 m=1 w=0.64 l=0.15 mult=1 sa=0.265
+ sb=0.265 sd=0.28 topography=normal area=0.063 perim=1.14
MI649 M1 clkpos S0 VNB nfet_01v8 m=1 w=0.36 l=0.15 mult=1 sa=0.265
+ sb=0.265 sd=0.28 topography=normal area=0.063 perim=1.14
MI98 db D n0 VNB nfet_01v8 m=1 w=0.42 l=0.15 mult=1 sa=0.265 sb=0.265
+ sd=0.28 topography=normal area=0.525 perim=3.1
MI103 n1 SCD VGND VNB nfet_01v8 m=1 w=0.42 l=0.18 mult=1 sa=0.265
+ sb=0.265 sd=0.28 topography=normal area=0.525 perim=3.1
MI120 db SCE n1 VNB nfet_01v8 m=1 w=0.42 l=0.5 mult=1 sa=0.265
+ sb=0.265 sd=0.28 topography=normal area=0.525 perim=3.1
MI104 n0 sceb VGND VNB nfet_01v8 m=1 w=0.42 l=0.15 mult=1 sa=0.265
+ sb=0.265 sd=0.28 topography=normal area=0.525 perim=3.1
MI643 clkneg CLK VPWR VPB pfet_01v8_hvt m=1 w=1.0 l=0.15 mult=1
+ sa=0.265 sb=0.265 sd=0.28 topography=normal area=0.063 perim=1.14
MI635 clkpos clkneg VPWR VPB pfet_01v8_hvt m=1 w=1.0 l=0.15 mult=1
+ sa=0.265 sb=0.265 sd=0.28 topography=normal area=0.063 perim=1.14
MI43 db clkpos M0 VPB pfet_01v8_hvt m=1 w=0.42 l=0.15 mult=1 sa=0.265
+ sb=0.265 sd=0.28 topography=normal area=0.063 perim=1.14
MI662 net187 net84 VPWR VPB pfet_01v8_hvt m=1 w=0.42 l=0.15 mult=1
+ sa=0.265 sb=0.265 sd=0.28 topography=normal area=0.063 perim=1.14
MI659 net84 RESET_B VPWR VPB pfet_01v8_hvt m=1 w=0.42 l=0.15 mult=1
+ sa=0.265 sb=0.265 sd=0.28 topography=normal area=0.063 perim=1.14
MI664 S0 clkpos net187 VPB pfet_01v8_hvt m=1 w=0.42 l=0.15 mult=1
+ sa=0.265 sb=0.265 sd=0.28 topography=normal area=0.063 perim=1.14
MI658 net84 S0 VPWR VPB pfet_01v8_hvt m=1 w=0.42 l=0.15 mult=1
+ sa=0.265 sb=0.265 sd=0.28 topography=normal area=0.063 perim=1.14
MI30 net166 M1 VPWR VPB pfet_01v8_hvt m=1 w=0.42 l=0.15 mult=1
+ sa=0.265 sb=0.265 sd=0.28 topography=normal area=0.063 perim=1.14
MI31 M0 clkneg net166 VPB pfet_01v8_hvt m=1 w=0.42 l=0.15 mult=1
+ sa=0.265 sb=0.265 sd=0.28 topography=normal area=0.063 perim=1.14
MI32 net166 RESET_B VPWR VPB pfet_01v8_hvt m=1 w=0.42 l=0.15 mult=1
+ sa=0.265 sb=0.265 sd=0.28 topography=normal area=0.063 perim=1.14
MI663 Q net84 VPWR VPB pfet_01v8_hvt m=2 w=1.0 l=0.15 mult=1 sa=0.265
+ sb=0.265 sd=0.28 topography=normal area=0.063 perim=1.14
MI648 M1 M0 VPWR VPB pfet_01v8_hvt m=1 w=0.84 l=0.15 mult=1 sa=0.265
+ sb=0.265 sd=0.28 topography=normal area=0.063 perim=1.14
MI650 M1 clkneg S0 VPB pfet_01v8_hvt m=1 w=0.42 l=0.15 mult=1 sa=0.265
+ sb=0.265 sd=0.28 topography=normal area=0.063 perim=1.14
MI633 sceb SCE VPWR VPB pfet_01v8_hvt m=1 w=0.54 l=0.15 mult=1
+ sa=0.265 sb=0.265 sd=0.28 topography=normal area=0.063 perim=1.14
MI101 db sceb p1 VPB pfet_01v8_hvt m=1 w=0.54 l=0.15 mult=1 sa=0.265
+ sb=0.265 sd=0.28 topography=normal area=0.063 perim=1.14
MI107 p0 SCE VPWR VPB pfet_01v8_hvt m=1 w=0.54 l=0.15 mult=1 sa=0.265
+ sb=0.265 sd=0.28 topography=normal area=0.063 perim=1.14
MI94 db D p0 VPB pfet_01v8_hvt m=1 w=0.54 l=0.15 mult=1 sa=0.265
+ sb=0.265 sd=0.28 topography=normal area=0.063 perim=1.14
MI108 p1 SCD VPWR VPB pfet_01v8_hvt m=1 w=0.54 l=0.15 mult=1 sa=0.265
+ sb=0.265 sd=0.28 topography=normal area=0.063 perim=1.14
.ENDS




.SUBCKT sky130_fd_sc_hd__sdfrtp_4 CLK D RESET_B SCD SCE VGND VNB VPB VPWR Q
MI642 clkneg CLK VGND VNB nfet_01v8 m=1 w=0.65 l=0.15 mult=1 sa=0.265
+ sb=0.265 sd=0.28 topography=normal area=0.063 perim=1.14
MI636 clkpos clkneg VGND VNB nfet_01v8 m=1 w=0.65 l=0.15 mult=1
+ sa=0.265 sb=0.265 sd=0.28 topography=normal area=0.063 perim=1.14
MI42 db clkneg M0 VNB nfet_01v8 m=1 w=0.36 l=0.15 mult=1 sa=0.265
+ sb=0.265 sd=0.28 topography=normal area=0.063 perim=1.14
MI656 net84 S0 net114 VNB nfet_01v8 m=1 w=0.42 l=0.15 mult=1 sa=0.265
+ sb=0.265 sd=0.28 topography=normal area=0.063 perim=1.14
MI657 net114 RESET_B VGND VNB nfet_01v8 m=1 w=0.42 l=0.15 mult=1
+ sa=0.265 sb=0.265 sd=0.28 topography=normal area=0.063 perim=1.14
MI33 net107 RESET_B VGND VNB nfet_01v8 m=1 w=0.42 l=0.15 mult=1
+ sa=0.265 sb=0.265 sd=0.28 topography=normal area=0.063 perim=1.14
MI634 sceb SCE VGND VNB nfet_01v8 m=1 w=0.42 l=0.15 mult=1 sa=0.265
+ sb=0.265 sd=0.28 topography=normal area=0.063 perim=1.14
MI4 M0 clkpos net95 VNB nfet_01v8 m=1 w=0.36 l=0.15 mult=1 sa=0.265
+ sb=0.265 sd=0.28 topography=normal area=0.063 perim=1.14
MI34 net95 M1 net107 VNB nfet_01v8 m=1 w=0.42 l=0.15 mult=1 sa=0.265
+ sb=0.265 sd=0.28 topography=normal area=0.063 perim=1.14
MI655 S0 clkneg net90 VNB nfet_01v8 m=1 w=0.36 l=0.15 mult=1 sa=0.265
+ sb=0.265 sd=0.28 topography=normal area=0.063 perim=1.14
MI652 Q net84 VGND VNB nfet_01v8 m=4 w=0.65 l=0.15 mult=1 sa=0.265
+ sb=0.265 sd=0.28 topography=normal area=0.063 perim=1.14
MI654 net90 net84 VGND VNB nfet_01v8 m=1 w=0.42 l=0.15 mult=1 sa=0.265
+ sb=0.265 sd=0.28 topography=normal area=0.063 perim=1.14
MI647 M1 M0 VGND VNB nfet_01v8 m=1 w=0.64 l=0.15 mult=1 sa=0.265
+ sb=0.265 sd=0.28 topography=normal area=0.063 perim=1.14
MI649 M1 clkpos S0 VNB nfet_01v8 m=1 w=0.36 l=0.15 mult=1 sa=0.265
+ sb=0.265 sd=0.28 topography=normal area=0.063 perim=1.14
MI98 db D n0 VNB nfet_01v8 m=1 w=0.42 l=0.15 mult=1 sa=0.265 sb=0.265
+ sd=0.28 topography=normal area=0.525 perim=3.1
MI103 n1 SCD VGND VNB nfet_01v8 m=1 w=0.42 l=0.18 mult=1 sa=0.265
+ sb=0.265 sd=0.28 topography=normal area=0.525 perim=3.1
MI120 db SCE n1 VNB nfet_01v8 m=1 w=0.42 l=0.5 mult=1 sa=0.265
+ sb=0.265 sd=0.28 topography=normal area=0.525 perim=3.1
MI104 n0 sceb VGND VNB nfet_01v8 m=1 w=0.42 l=0.15 mult=1 sa=0.265
+ sb=0.265 sd=0.28 topography=normal area=0.525 perim=3.1
MI643 clkneg CLK VPWR VPB pfet_01v8_hvt m=1 w=1.0 l=0.15 mult=1
+ sa=0.265 sb=0.265 sd=0.28 topography=normal area=0.063 perim=1.14
MI635 clkpos clkneg VPWR VPB pfet_01v8_hvt m=1 w=1.0 l=0.15 mult=1
+ sa=0.265 sb=0.265 sd=0.28 topography=normal area=0.063 perim=1.14
MI43 db clkpos M0 VPB pfet_01v8_hvt m=1 w=0.42 l=0.15 mult=1 sa=0.265
+ sb=0.265 sd=0.28 topography=normal area=0.063 perim=1.14